/*---------------------------------------------------------------------------*\
| =========                 |                                                 |
| \\      /  F ield         | OpenFOAM: The Open Source CFD Toolbox           |
|  \\    /   O peration     | Version:  2406                                  |
|   \\  /    A nd           | Website:  www.openfoam.com                      |
|    \\/     M anipulation  |                                                 |
\*---------------------------------------------------------------------------*/
Build  : _630d60de3b-20240620 OPENFOAM=2406 version=v2406
Arch   : "LSB;label=32;scalar=64"
Exec   : gmshToFoam /home/fahim.shahriyar/dsmc/openfoam_mach3_cylinder/2d_cylinder_amr.msh
Date   : Mar 31 2026
Time   : 12:09:41
Host   : undcemhh109-02l.cem.und.edu
PID    : 432675
I/O    : uncollated
Case   : /home/fahim.shahriyar/dsmc/openfoam_mach3_cylinder/openfoam_case
nProcs : 1
fileModificationChecking : Monitoring run-time modified files using timeStampMaster (fileModificationSkew 5, maxFileModificationPolls 20)
allowSystemOperations : Allowing user-supplied system call operations

// * * * * * * * * * * * * * * * * * * * * * * * * * * * * * * * * * * * * * //
Create time

Starting to read mesh format at line 2
Read format version 2.2  ascii 0

Starting to read physical names at line 5
Physical names:5
    Surface 1	inlet
    Surface 2	outlet
    Surface 3	wall
    Surface 4	frontAndBack
    Volume 5	internalMesh

Starting to read points at line 13
Vertices to be read: 17500
Vertices read:17500

Starting to read cells at line 17516
Cells to be read: 51782

Mapping region 4 to Foam patch 0
Mapping region 2 to Foam patch 1
Mapping region 1 to Foam patch 2
Mapping region 3 to Foam patch 3
Mapping region 5 to Foam cellZone 0
Cells:
    total:17141
    hex  :0
    prism:17141
    pyr  :0
    tet  :0

CellZones:
Zone	Size
    0	17141

Patch 0 gets name frontAndBack
Patch 1 gets name outlet
Patch 2 gets name inlet
Patch 3 gets name wall

--> FOAM Warning : 
    From Foam::polyMesh::polyMesh(const Foam::IOobject&, Foam::pointField&&, const cellShapeList&, const faceListList&, const wordList&, const wordList&, const Foam::word&, const Foam::word&, const wordList&, bool)
    in file meshes/polyMesh/polyMeshFromShapeMesh.C at line 640
    Found 34641 undefined faces in mesh; adding to default patch defaultFaces
Finding faces of patch 0
Finding faces of patch 1
Finding faces of patch 2
Finding faces of patch 3

FaceZones:
Zone	Size

Writing zone 0 to cellZone internalMesh and cellSet
End

